*Heading
** Job name: TEST-OPT-2D-MODEL-50-JOB Model name: LC-1
** Generated by: Abaqus/CAE 6.14-1
*Preprint, echo=NO, model=NO, history=NO, contact=NO
** ----------------------------------------------------------------
** 
** PART INSTANCE: PART-1-1
** 
*Node
      1,         595.,          95.
      2,         595.,        -100.
      3,         600.,        -100.
      4,         600.,          95.
      5,        -595.,          95.
      6,           0.,        -100.
      7,        -595.,        -100.
      8,        -600.,          95.
      9,        -600.,        -100.
     10,        -580.,         100.
     11,        -560.,         100.
     12,        -540.,         100.
     13,        -520.,         100.
     14,        -500.,         100.
     15,        -480.,         100.
     16,        -460.,         100.
     17,        -440.,         100.
     18,        -420.,         100.
     19,        -400.,         100.
     20,        -380.,         100.
** ... 9861 like lines cut
*Element, type=CPS4R
 1,   1,  71, 146,   4
 2,  71,  72, 145, 146
 3,  72,  73, 144, 145
 4,  73,  74, 143, 144
 5,  74,  75, 142, 143
 6,  75,  76, 141, 142
 7,  76,  77, 140, 141
 8,  77,  78, 139, 140
 9,  78,  79, 138, 139
10,  79,  80, 137, 138
11,  80,  81, 136, 137
12,  81,  82, 135, 136
13,  82,  83, 134, 135
14,  83,  84, 133, 134
15,  84,  85, 132, 133
16,  85,  86, 131, 132
17,  86,  87, 130, 131
18,  87,  88, 129, 130
19,  88,  89, 128, 129
20,  89,  90, 127, 128
** ... 9580 like lines cut
*Nset, nset=PART-1-1_PART-1, generate
    1,  9881,     1
*Elset, elset=PART-1-1_PART-1, generate
    1,  9600,     1
** Section: SECTION-1
*Solid Section, elset=PART-1-1_PART-1, material=STEEL
,
*System
*Node
   9882,        -600.,         -2.5,           0.
*Node
   9883,         600.,         -2.5,           0.
*Nset, nset=BOTTOM-LAYER
    1,    2,    5,    6,    7,   71,   72,   73,   74,   75,   76,   77,   78,   79,   80,   81
   82,   83,   84,   85,   86,   87,   88,   89,   90,   91,   92,   93,   94,   95,   96,   97
   98,   99,  100,  101,  102,  103,  104,  105,  106,  107,  108,  147,  148,  149,  150,  151
  152,  153,  154,  155,  156,  157,  158,  159,  160,  161,  162,  163,  164,  165,  166,  167
  168,  169,  170,  171,  172,  173,  174,  175,  176,  177,  178,  179,  180,  181,  182,  183
  184,  185,  186,  187,  188,  189,  190,  191,  192,  193,  194,  195,  196,  197,  198,  199
  200,  201,  202,  203,  204,  205,  206,  207,  208,  209,  210,  211,  212,  213,  214,  215
  216,  217,  218,  219,  220,  221,  222,  223,  224,  225,  226,  227,  228,  229,  230,  231
  232,  233,  234,  235,  236,  237,  238,  239,  240,  241,  242,  243,  244,  245,  246,  247
  248,  249,  250,  251,  252,  253,  254,  255,  256,  257,  258,  259,  260,  261,  262,  263
  264,  265,  266,  267,  268,  269,  270,  271,  272,  273,  274,  275,  276,  277,  278,  279
  280,  281,  282,  283,  284,  285,  286,  287,  288,  289,  290,  291,  292,  293,  294,  295
  296,  297,  298,  299,  300,  301,  302,  303,  304,  305,  306,  307,  308,  309,  310,  311
  312,  313,  314,  315,  316,  317,  318,  319,  320,  321,  322,  323,  324,  325,  326,  327
  328,  329,  330,  331,  332,  333,  334,  335,  336,  337,  338,  339,  340,  341,  342,  343
  344,  345,  346,  347,  348,  349,  350,  351,  352,  353,  354,  355,  356,  357,  358,  359
  360,  361,  362,  363,  364,  365,  366,  367,  368,  369,  370,  371,  372,  373,  374,  375
  376,  377,  378,  379,  380,  381,  382,  383,  384,  385,  386,  387,  388,  389,  390,  391
  392,  393,  394,  395,  396,  397,  398,  399,  400,  401,  402,  403,  404,  405,  406,  407
  408,  409,  410,  411,  412,  413,  414,  415,  416,  417,  418,  419,  420,  421,  422,  423
** ... 578 like lines cut
*Elset, elset=BOTTOM-LAYER, generate
   40,  9321,     1
*Nset, nset=DESIGN-AREA, generate
    1,  9881,     1
*Elset, elset=DESIGN-AREA, generate
    1,  9600,     1
*Nset, nset=EDGE-BC-1
   8,   9, 658, 659, 660, 661, 662, 663, 664, 665, 666, 667, 668, 669, 670, 671
 672, 673, 674, 675, 676, 677, 678, 679, 680, 681, 682, 683, 684, 685, 686, 687
 688, 689, 690, 691, 692, 693, 694, 695
*Elset, elset=EDGE-BC-1, generate
 9322,  9360,     1
*Nset, nset=EDGE-BC-2
   3,   4, 109, 110, 111, 112, 113, 114, 115, 116, 117, 118, 119, 120, 121, 122
 123, 124, 125, 126, 127, 128, 129, 130, 131, 132, 133, 134, 135, 136, 137, 138
 139, 140, 141, 142, 143, 144, 145, 146
*Elset, elset=EDGE-BC-2, generate
  1,  39,   1
*Nset, nset=LEFT-LAYER
   5,   7,   8,   9, 384, 385, 386, 387, 388, 389, 390, 391, 392, 393, 394, 395
 396, 397, 398, 399, 400, 401, 402, 403, 404, 405, 406, 407, 408, 409, 410, 411
 412, 413, 414, 415, 416, 417, 418, 419, 420, 421, 658, 659, 660, 661, 662, 663
 664, 665, 666, 667, 668, 669, 670, 671, 672, 673, 674, 675, 676, 677, 678, 679
 680, 681, 682, 683, 684, 685, 686, 687, 688, 689, 690, 691, 692, 693, 694, 695
*Elset, elset=LEFT-LAYER, generate
 9322,  9360,     1
*Nset, nset=NODE-DEMOLD
 8,
*Nset, nset=RIGHT-LAYER
   1,   2,   3,   4,  71,  72,  73,  74,  75,  76,  77,  78,  79,  80,  81,  82
  83,  84,  85,  86,  87,  88,  89,  90,  91,  92,  93,  94,  95,  96,  97,  98
  99, 100, 101, 102, 103, 104, 105, 106, 107, 108, 109, 110, 111, 112, 113, 114
 115, 116, 117, 118, 119, 120, 121, 122, 123, 124, 125, 126, 127, 128, 129, 130
 131, 132, 133, 134, 135, 136, 137, 138, 139, 140, 141, 142, 143, 144, 145, 146
*Elset, elset=RIGHT-LAYER, generate
  1,  39,   1
*Nset, nset=RP-1
9882,
*Nset, nset=RP-2
9883,
*Nset, nset=TOP-LAYER
   1,   4,   5,   8,  10,  11,  12,  13,  14,  15,  16,  17,  18,  19,  20,  21
  22,  23,  24,  25,  26,  27,  28,  29,  30,  31,  32,  33,  34,  35,  36,  37
  38,  39,  40,  41,  42,  43,  44,  45,  46,  47,  48,  49,  50,  51,  52,  53
  54,  55,  56,  57,  58,  59,  60,  61,  62,  63,  64,  65,  66,  67,  68,  69
  70, 147, 148, 149, 150, 151, 152, 153, 154, 155, 156, 157, 158, 159, 160, 161
 162, 163, 164, 165, 166, 167, 168, 169, 170, 171, 172, 173, 174, 175, 176, 177
 178, 179, 180, 181, 182, 183, 184, 185, 186, 187, 188, 189, 190, 191, 192, 193
 194, 195, 196, 197, 198, 199, 200, 201, 202, 203, 204, 205, 206, 207, 208, 209
 210, 211, 212, 213, 214, 215, 216, 217, 218, 219, 220, 221, 222, 223, 224, 225
 226, 227, 228, 229, 230, 231, 232, 233, 234, 235, 236, 237, 238, 239, 240, 241
 242, 243, 244, 245, 246, 247, 248, 249, 250, 251, 252, 253, 254, 255, 256, 257
 258, 259, 260, 261, 262, 263, 264, 265, 266, 267, 268, 269, 270, 271, 272, 273
 274, 275, 276, 277, 278, 279, 280, 281, 282, 283, 284, 285, 286, 287, 288, 289
 290, 291, 292, 293, 294, 295, 296, 297, 298, 299, 300, 301, 302, 303, 304, 305
 306, 307, 308, 309, 310, 311, 312, 313, 314, 315, 316, 317, 318, 319, 320, 321
 322, 323, 324, 325, 326, 327, 328, 329, 330, 331, 332, 333, 334, 335, 336, 337
 338, 339, 340, 341, 342, 343, 344, 345, 346, 347, 348, 349, 350, 351, 352, 353
 354, 355, 356, 357, 358, 359, 360, 361, 362, 363, 364, 365, 366, 367, 368, 369
 370, 371, 372, 373, 374, 375, 376, 377, 378, 379, 380, 381, 382, 383, 696, 697
 698, 699, 700, 701, 702, 703, 704, 705, 706, 707, 708, 709, 710, 711, 712, 713
** ... 11 like lines cut
*Elset, elset=TOP-LAYER, generate
 9361,  9600,     1
*Elset, elset=_LOAD-TILE-1_S3, generate
 9361,  9364,     1
*Surface, type=ELEMENT, name=LOAD-TILE-1
_LOAD-TILE-1_S3, S3
*Elset, elset=_LOAD-TILE-2_S3, generate
 9365,  9368,     1
*Surface, type=ELEMENT, name=LOAD-TILE-2
_LOAD-TILE-2_S3, S3
*Elset, elset=_LOAD-TILE-3_S3, generate
 9369,  9372,     1
*Surface, type=ELEMENT, name=LOAD-TILE-3
_LOAD-TILE-3_S3, S3
*Elset, elset=_LOAD-TILE-4_S3, generate
 9373,  9376,     1
*Surface, type=ELEMENT, name=LOAD-TILE-4
_LOAD-TILE-4_S3, S3
*Elset, elset=_LOAD-TILE-5_S3, generate
 9377,  9380,     1
*Surface, type=ELEMENT, name=LOAD-TILE-5
_LOAD-TILE-5_S3, S3
*Elset, elset=_LOAD-TILE-6_S3, generate
 9381,  9384,     1
*Surface, type=ELEMENT, name=LOAD-TILE-6
_LOAD-TILE-6_S3, S3
*Elset, elset=_LOAD-TILE-7_S3, generate
 9385,  9388,     1
*Surface, type=ELEMENT, name=LOAD-TILE-7
_LOAD-TILE-7_S3, S3
*Elset, elset=_LOAD-TILE-8_S3, generate
 9389,  9392,     1
*Surface, type=ELEMENT, name=LOAD-TILE-8
_LOAD-TILE-8_S3, S3
*Elset, elset=_LOAD-TILE-9_S3, generate
 9393,  9396,     1
*Surface, type=ELEMENT, name=LOAD-TILE-9
_LOAD-TILE-9_S3, S3
*Elset, elset=_LOAD-TILE-10_S3, generate
 9397,  9400,     1
*Surface, type=ELEMENT, name=LOAD-TILE-10
_LOAD-TILE-10_S3, S3
*Elset, elset=_LOAD-TILE-11_S3, generate
 9401,  9404,     1
*Surface, type=ELEMENT, name=LOAD-TILE-11
_LOAD-TILE-11_S3, S3
*Elset, elset=_LOAD-TILE-12_S3, generate
 9405,  9408,     1
*Surface, type=ELEMENT, name=LOAD-TILE-12
_LOAD-TILE-12_S3, S3
*Elset, elset=_LOAD-TILE-13_S3, generate
 9409,  9412,     1
*Surface, type=ELEMENT, name=LOAD-TILE-13
_LOAD-TILE-13_S3, S3
*Elset, elset=_LOAD-TILE-14_S3, generate
 9413,  9416,     1
*Surface, type=ELEMENT, name=LOAD-TILE-14
_LOAD-TILE-14_S3, S3
*Elset, elset=_LOAD-TILE-15_S3, generate
 9417,  9420,     1
*Surface, type=ELEMENT, name=LOAD-TILE-15
_LOAD-TILE-15_S3, S3
*Elset, elset=_LOAD-TILE-16_S3, generate
 9421,  9424,     1
*Surface, type=ELEMENT, name=LOAD-TILE-16
_LOAD-TILE-16_S3, S3
*Elset, elset=_LOAD-TILE-17_S3, generate
 9425,  9428,     1
*Surface, type=ELEMENT, name=LOAD-TILE-17
_LOAD-TILE-17_S3, S3
*Elset, elset=_LOAD-TILE-18_S3, generate
 9429,  9432,     1
*Surface, type=ELEMENT, name=LOAD-TILE-18
_LOAD-TILE-18_S3, S3
*Elset, elset=_LOAD-TILE-19_S3, generate
 9433,  9436,     1
*Surface, type=ELEMENT, name=LOAD-TILE-19
_LOAD-TILE-19_S3, S3
*Elset, elset=_LOAD-TILE-20_S3, generate
 9437,  9440,     1
*Surface, type=ELEMENT, name=LOAD-TILE-20
_LOAD-TILE-20_S3, S3
*Elset, elset=_LOAD-TILE-21_S3, generate
 9441,  9444,     1
*Surface, type=ELEMENT, name=LOAD-TILE-21
_LOAD-TILE-21_S3, S3
*Elset, elset=_LOAD-TILE-22_S3, generate
 9445,  9448,     1
*Surface, type=ELEMENT, name=LOAD-TILE-22
_LOAD-TILE-22_S3, S3
*Elset, elset=_LOAD-TILE-23_S3, generate
 9449,  9452,     1
*Surface, type=ELEMENT, name=LOAD-TILE-23
_LOAD-TILE-23_S3, S3
*Elset, elset=_LOAD-TILE-24_S3, generate
 9453,  9456,     1
*Surface, type=ELEMENT, name=LOAD-TILE-24
_LOAD-TILE-24_S3, S3
*Elset, elset=_LOAD-TILE-25_S3, generate
 9457,  9460,     1
*Surface, type=ELEMENT, name=LOAD-TILE-25
_LOAD-TILE-25_S3, S3
*Elset, elset=_LOAD-TILE-26_S3, generate
 9461,  9464,     1
*Surface, type=ELEMENT, name=LOAD-TILE-26
_LOAD-TILE-26_S3, S3
*Elset, elset=_LOAD-TILE-27_S3, generate
 9465,  9468,     1
*Surface, type=ELEMENT, name=LOAD-TILE-27
_LOAD-TILE-27_S3, S3
*Elset, elset=_LOAD-TILE-28_S3, generate
 9469,  9472,     1
*Surface, type=ELEMENT, name=LOAD-TILE-28
_LOAD-TILE-28_S3, S3
*Elset, elset=_LOAD-TILE-29_S3, generate
 9473,  9476,     1
*Surface, type=ELEMENT, name=LOAD-TILE-29
_LOAD-TILE-29_S3, S3
*Elset, elset=_LOAD-TILE-30_S3, generate
 9477,  9480,     1
*Surface, type=ELEMENT, name=LOAD-TILE-30
_LOAD-TILE-30_S3, S3
*Elset, elset=_LOAD-TILE-31_S3, generate
 9481,  9484,     1
*Surface, type=ELEMENT, name=LOAD-TILE-31
_LOAD-TILE-31_S3, S3
*Elset, elset=_LOAD-TILE-32_S3, generate
 9485,  9488,     1
*Surface, type=ELEMENT, name=LOAD-TILE-32
_LOAD-TILE-32_S3, S3
*Elset, elset=_LOAD-TILE-33_S3, generate
 9489,  9492,     1
*Surface, type=ELEMENT, name=LOAD-TILE-33
_LOAD-TILE-33_S3, S3
*Elset, elset=_LOAD-TILE-34_S3, generate
 9493,  9496,     1
*Surface, type=ELEMENT, name=LOAD-TILE-34
_LOAD-TILE-34_S3, S3
*Elset, elset=_LOAD-TILE-35_S3, generate
 9497,  9500,     1
*Surface, type=ELEMENT, name=LOAD-TILE-35
_LOAD-TILE-35_S3, S3
*Elset, elset=_LOAD-TILE-36_S3, generate
 9501,  9504,     1
*Surface, type=ELEMENT, name=LOAD-TILE-36
_LOAD-TILE-36_S3, S3
*Elset, elset=_LOAD-TILE-37_S3, generate
 9505,  9508,     1
*Surface, type=ELEMENT, name=LOAD-TILE-37
_LOAD-TILE-37_S3, S3
*Elset, elset=_LOAD-TILE-38_S3, generate
 9509,  9512,     1
*Surface, type=ELEMENT, name=LOAD-TILE-38
_LOAD-TILE-38_S3, S3
*Elset, elset=_LOAD-TILE-39_S3, generate
 9513,  9516,     1
*Surface, type=ELEMENT, name=LOAD-TILE-39
_LOAD-TILE-39_S3, S3
*Elset, elset=_LOAD-TILE-40_S3, generate
 9517,  9520,     1
*Surface, type=ELEMENT, name=LOAD-TILE-40
_LOAD-TILE-40_S3, S3
*Elset, elset=_LOAD-TILE-41_S3, generate
 9521,  9524,     1
*Surface, type=ELEMENT, name=LOAD-TILE-41
_LOAD-TILE-41_S3, S3
*Elset, elset=_LOAD-TILE-42_S3, generate
 9525,  9528,     1
*Surface, type=ELEMENT, name=LOAD-TILE-42
_LOAD-TILE-42_S3, S3
*Elset, elset=_LOAD-TILE-43_S3, generate
 9529,  9532,     1
*Surface, type=ELEMENT, name=LOAD-TILE-43
_LOAD-TILE-43_S3, S3
*Elset, elset=_LOAD-TILE-44_S3, generate
 9533,  9536,     1
*Surface, type=ELEMENT, name=LOAD-TILE-44
_LOAD-TILE-44_S3, S3
*Elset, elset=_LOAD-TILE-45_S3, generate
 9537,  9540,     1
*Surface, type=ELEMENT, name=LOAD-TILE-45
_LOAD-TILE-45_S3, S3
*Elset, elset=_LOAD-TILE-46_S3, generate
 9541,  9544,     1
*Surface, type=ELEMENT, name=LOAD-TILE-46
_LOAD-TILE-46_S3, S3
*Elset, elset=_LOAD-TILE-47_S3, generate
 9545,  9548,     1
*Surface, type=ELEMENT, name=LOAD-TILE-47
_LOAD-TILE-47_S3, S3
*Elset, elset=_LOAD-TILE-48_S3, generate
 9549,  9552,     1
*Surface, type=ELEMENT, name=LOAD-TILE-48
_LOAD-TILE-48_S3, S3
*Elset, elset=_LOAD-TILE-49_S3, generate
 9553,  9556,     1
*Surface, type=ELEMENT, name=LOAD-TILE-49
_LOAD-TILE-49_S3, S3
*Elset, elset=_LOAD-TILE-50_S3, generate
 9557,  9560,     1
*Surface, type=ELEMENT, name=LOAD-TILE-50
_LOAD-TILE-50_S3, S3
*Elset, elset=_LOAD-TILE-51_S3, generate
 9561,  9564,     1
*Surface, type=ELEMENT, name=LOAD-TILE-51
_LOAD-TILE-51_S3, S3
*Elset, elset=_LOAD-TILE-52_S3, generate
 9565,  9568,     1
*Surface, type=ELEMENT, name=LOAD-TILE-52
_LOAD-TILE-52_S3, S3
*Elset, elset=_LOAD-TILE-53_S3, generate
 9569,  9572,     1
*Surface, type=ELEMENT, name=LOAD-TILE-53
_LOAD-TILE-53_S3, S3
*Elset, elset=_LOAD-TILE-54_S3, generate
 9573,  9576,     1
*Surface, type=ELEMENT, name=LOAD-TILE-54
_LOAD-TILE-54_S3, S3
*Elset, elset=_LOAD-TILE-55_S3, generate
 9577,  9580,     1
*Surface, type=ELEMENT, name=LOAD-TILE-55
_LOAD-TILE-55_S3, S3
*Elset, elset=_LOAD-TILE-56_S3, generate
 9581,  9584,     1
*Surface, type=ELEMENT, name=LOAD-TILE-56
_LOAD-TILE-56_S3, S3
*Elset, elset=_LOAD-TILE-57_S3, generate
 9585,  9588,     1
*Surface, type=ELEMENT, name=LOAD-TILE-57
_LOAD-TILE-57_S3, S3
*Elset, elset=_LOAD-TILE-58_S3, generate
 9589,  9592,     1
*Surface, type=ELEMENT, name=LOAD-TILE-58
_LOAD-TILE-58_S3, S3
*Elset, elset=_LOAD-TILE-59_S3, generate
 9593,  9596,     1
*Surface, type=ELEMENT, name=LOAD-TILE-59
_LOAD-TILE-59_S3, S3
*Elset, elset=_LOAD-TILE-60_S3, generate
 9597,  9600,     1
*Surface, type=ELEMENT, name=LOAD-TILE-60
_LOAD-TILE-60_S3, S3
** Constraint: CONSTRAINT-BC-1
*Rigid Body, ref node=RP-1, pin nset=EDGE-BC-1
** Constraint: CONSTRAINT-BC-2
*Rigid Body, ref node=RP-2, pin nset=EDGE-BC-2
** 
** MATERIALS
** 
*Material, name=STEEL
*Elastic
10000., 0.2
** 
** BOUNDARY CONDITIONS
** 
** Name: BC-RP-1 Type: Displacement/Rotation
*Boundary
RP-1, 1, 1
RP-1, 2, 2
** Name: BC-RP-2 Type: Displacement/Rotation
*Boundary
RP-2, 1, 1
RP-2, 2, 2
** ----------------------------------------------------------------
** 
** STEP: STEP-1
** 
*Step, name=STEP-1, nlgeom=NO
*Static
1., 1., 1e-05, 1.
** 
** LOADS
** 
** Name: LOAD-TILE-1   Type: Pressure
*Dsload
LOAD-TILE-1, P, 1.
** Name: LOAD-TILE-2   Type: Pressure
*Dsload
LOAD-TILE-2, P, 1.
** Name: LOAD-TILE-3   Type: Pressure
*Dsload
LOAD-TILE-3, P, 1.
** Name: LOAD-TILE-4   Type: Pressure
*Dsload
LOAD-TILE-4, P, 1.
** Name: LOAD-TILE-5   Type: Pressure
*Dsload
LOAD-TILE-5, P, 1.
** Name: LOAD-TILE-6   Type: Pressure
*Dsload
LOAD-TILE-6, P, 1.
** Name: LOAD-TILE-7   Type: Pressure
*Dsload
LOAD-TILE-7, P, 1.
** Name: LOAD-TILE-8   Type: Pressure
*Dsload
LOAD-TILE-8, P, 1.
** Name: LOAD-TILE-9   Type: Pressure
*Dsload
LOAD-TILE-9, P, 1.
** Name: LOAD-TILE-10   Type: Pressure
*Dsload
LOAD-TILE-10, P, 1.
** Name: LOAD-TILE-11   Type: Pressure
*Dsload
LOAD-TILE-11, P, 1.
** Name: LOAD-TILE-12   Type: Pressure
*Dsload
LOAD-TILE-12, P, 1.
** Name: LOAD-TILE-13   Type: Pressure
*Dsload
LOAD-TILE-13, P, 1.
** Name: LOAD-TILE-14   Type: Pressure
*Dsload
LOAD-TILE-14, P, 1.
** Name: LOAD-TILE-15   Type: Pressure
*Dsload
LOAD-TILE-15, P, 1.
** Name: LOAD-TILE-16   Type: Pressure
*Dsload
LOAD-TILE-16, P, 1.
** Name: LOAD-TILE-17   Type: Pressure
*Dsload
LOAD-TILE-17, P, 1.
** Name: LOAD-TILE-18   Type: Pressure
*Dsload
LOAD-TILE-18, P, 1.
** Name: LOAD-TILE-19   Type: Pressure
*Dsload
LOAD-TILE-19, P, 1.
** Name: LOAD-TILE-20   Type: Pressure
*Dsload
LOAD-TILE-20, P, 1.
** Name: LOAD-TILE-21   Type: Pressure
*Dsload
LOAD-TILE-21, P, 1.
** Name: LOAD-TILE-22   Type: Pressure
*Dsload
LOAD-TILE-22, P, 1.
** Name: LOAD-TILE-23   Type: Pressure
*Dsload
LOAD-TILE-23, P, 1.
** Name: LOAD-TILE-24   Type: Pressure
*Dsload
LOAD-TILE-24, P, 1.
** Name: LOAD-TILE-25   Type: Pressure
*Dsload
LOAD-TILE-25, P, 1.
** Name: LOAD-TILE-26   Type: Pressure
*Dsload
LOAD-TILE-26, P, 1.
** Name: LOAD-TILE-27   Type: Pressure
*Dsload
LOAD-TILE-27, P, 1.
** Name: LOAD-TILE-28   Type: Pressure
*Dsload
LOAD-TILE-28, P, 1.
** Name: LOAD-TILE-29   Type: Pressure
*Dsload
LOAD-TILE-29, P, 1.
** Name: LOAD-TILE-30   Type: Pressure
*Dsload
LOAD-TILE-30, P, 1.
** Name: LOAD-TILE-31   Type: Pressure
*Dsload
LOAD-TILE-31, P, 1.
** Name: LOAD-TILE-32   Type: Pressure
*Dsload
LOAD-TILE-32, P, 1.
** Name: LOAD-TILE-33   Type: Pressure
*Dsload
LOAD-TILE-33, P, 1.
** Name: LOAD-TILE-34   Type: Pressure
*Dsload
LOAD-TILE-34, P, 1.
** Name: LOAD-TILE-35   Type: Pressure
*Dsload
LOAD-TILE-35, P, 1.
** Name: LOAD-TILE-36   Type: Pressure
*Dsload
LOAD-TILE-36, P, 1.
** Name: LOAD-TILE-37   Type: Pressure
*Dsload
LOAD-TILE-37, P, 1.
** Name: LOAD-TILE-38   Type: Pressure
*Dsload
LOAD-TILE-38, P, 1.
** Name: LOAD-TILE-39   Type: Pressure
*Dsload
LOAD-TILE-39, P, 1.
** Name: LOAD-TILE-40   Type: Pressure
*Dsload
LOAD-TILE-40, P, 1.
** Name: LOAD-TILE-41   Type: Pressure
*Dsload
LOAD-TILE-41, P, 1.
** Name: LOAD-TILE-42   Type: Pressure
*Dsload
LOAD-TILE-42, P, 1.
** Name: LOAD-TILE-43   Type: Pressure
*Dsload
LOAD-TILE-43, P, 1.
** Name: LOAD-TILE-44   Type: Pressure
*Dsload
LOAD-TILE-44, P, 1.
** Name: LOAD-TILE-45   Type: Pressure
*Dsload
LOAD-TILE-45, P, 1.
** Name: LOAD-TILE-46   Type: Pressure
*Dsload
LOAD-TILE-46, P, 1.
** Name: LOAD-TILE-47   Type: Pressure
*Dsload
LOAD-TILE-47, P, 1.
** Name: LOAD-TILE-48   Type: Pressure
*Dsload
LOAD-TILE-48, P, 1.
** Name: LOAD-TILE-49   Type: Pressure
*Dsload
LOAD-TILE-49, P, 1.
** Name: LOAD-TILE-50   Type: Pressure
*Dsload
LOAD-TILE-50, P, 1.
** Name: LOAD-TILE-51   Type: Pressure
*Dsload
LOAD-TILE-51, P, 1.
** Name: LOAD-TILE-52   Type: Pressure
*Dsload
LOAD-TILE-52, P, 1.
** Name: LOAD-TILE-53   Type: Pressure
*Dsload
LOAD-TILE-53, P, 1.
** Name: LOAD-TILE-54   Type: Pressure
*Dsload
LOAD-TILE-54, P, 1.
** Name: LOAD-TILE-55   Type: Pressure
*Dsload
LOAD-TILE-55, P, 1.
** Name: LOAD-TILE-56   Type: Pressure
*Dsload
LOAD-TILE-56, P, 1.
** Name: LOAD-TILE-57   Type: Pressure
*Dsload
LOAD-TILE-57, P, 1.
** Name: LOAD-TILE-58   Type: Pressure
*Dsload
LOAD-TILE-58, P, 1.
** Name: LOAD-TILE-59   Type: Pressure
*Dsload
LOAD-TILE-59, P, 1.
** Name: LOAD-TILE-60   Type: Pressure
*Dsload
LOAD-TILE-60, P, 1.
** 
** OUTPUT REQUESTS
** 
*Restart, write, frequency=0
** 
** FIELD OUTPUT: F-Output-1
** 
*Output, field
*Node Output
COORD, RF, U
*Element Output, directions=YES
E, EE, ELEDEN, ELEN, ENER, MISES, NE, P, S
** 
** HISTORY OUTPUT: H-Output-1
** 
*Output, history, variable=PRESELECT
*End Step
